Darcy flow equation
equivalent transmissivity expression
interactions should be quantified according to hydraulic principles
MODFLOW
outlet elevation
principle of Dupuit-Forchheimer lateral/radial groundwater flow
properties of the connection between the two
relative river and wetland water level elevations
representing wetland-river interactions involving GIWs
riparian wetland-river interaction is modelled
subsurface soil
WATFLOOD
wetland vegetation
